/*--------------------------------*- C++ -*----------------------------------*\
  =========                 |
  \\      /  F ield         | OpenFOAM: The Open Source CFD Toolbox
   \\    /   O peration     | Website:  https://openfoam.org
    \\  /    A nd           | Version:  6
     \\/     M anipulation  |
\*---------------------------------------------------------------------------*/
FoamFile
{
    version     2.0;
    format      ascii;
    class       dictionary;
    location    "constant";
    object      fvOptions;
}
// * * * * * * * * * * * * * * * * * * * * * * * * * * * * * * * * * * * * * //

momentumSource
{
   type vectorSemiImplicitSource;
   active on;
   selectionMode all;
   vectorSemiImplicitSourceCoeffs
   {
      //volumeMode      absolute; // all_mesh
      volumeMode        specific; //singe mesh-cell
      injectionRateSuSp
      {
         U           ( (6075 0 0) 0);  //pGrad=6075 Retau=150
      }
   }
}


// ************************************************************************* //
